<NUMBER OF ZONES> 2671
<NUMBER OF NODES> 16345
<NUMBER OF LINKS> 35930
<END OF METADATA>

~init_node	term_node	capacity	length	free_flow_time
1	2771	10000.0	0	0.0178210009
1	8532	10000.0	0	0.0190650001
2	8510	10000.0	0	0.0325939991
2	10606	10000.0	0	0.0195809994
2	10607	10000.0	0	0.0403430015
2	13595	10000.0	0	0.0326870009
3	9951	10000.0	0	0.024588
3	10656	10000.0	0	0.0631190017
4	10608	10000.0	0	0.0183279999
5	8484	10000.0	0	0.0343010016
5	10606	10000.0	0	0.0322909988
5	13594	10000.0	0	0.0260700006
6	8538	10000.0	0	0.0139560001
7	10138	10000.0	0	0.032598
7	10139	10000.0	0	0.0249809995
8	9028	10000.0	0	0.0275619999
9	10656	10000.0	0	0.0430609994
9	10667	10000.0	0	0.0145089999
10	10642	10000.0	0	0.0867419988
10	10648	10000.0	0	0.0425000004
11	9492	10000.0	0	0.0191120002
11	13601	10000.0	0	0.0120209996
12	10656	10000.0	0	0.0318030007
12	10663	10000.0	0	0.0493529998
13	10136	10000.0	0	0.0284260008
13	13596	10000.0	0	0.0264560003
14	10697	10000.0	0	0.0277880002
14	15168	10000.0	0	0.0426089987
15	15169	10000.0	0	0.0259569995
16	7245	10000.0	0	0.0220570005
16	14454	10000.0	0	0.00657200022
16	14455	10000.0	0	0.00325100007
17	7245	10000.0	0	0.0124000004
17	7264	10000.0	0	0.0107490001
17	13302	10000.0	0	0.0157149993
17	13565	10000.0	0	0.0117760003
18	7400	10000.0	0	0.00739799999
18	8966	10000.0	0	0.00583200017
18	9575	10000.0	0	0.00652399985
19	7324	10000.0	0	0.00902900007
19	10953	10000.0	0	0.0152820004
19	13306	10000.0	0	0.0104660001
19	14456	10000.0	0	0.00534499995
19	14457	10000.0	0	0.0102920001
20	7215	10000.0	0	0.0141899996
20	7439	10000.0	0	0.013758
20	8896	10000.0	0	0.0111980001
20	9117	10000.0	0	0.0113690002
20	10950	10000.0	0	0.00997199956
21	7454	10000.0	0	0.0106720002
21	7474	10000.0	0	0.0144969998
21	8896	10000.0	0	0.0153130004
21	13566	10000.0	0	0.0286599994
21	13912	10000.0	0	0.0158939995
21	13925	10000.0	0	0.0337750018
22	7414	10000.0	0	0.00769300014
22	7430	10000.0	0	0.0178420004
23	7361	10000.0	0	0.0171569996
23	7391	10000.0	0	0.0130899996
23	7419	10000.0	0	0.00277699996
23	9570	10000.0	0	0.0239410009
23	10554	10000.0	0	0.0259199999
23	10939	10000.0	0	0.0187899992
24	7438	10000.0	0	0.00852200016
24	9115	10000.0	0	0.0173950009
24	13895	10000.0	0	0.0300370008
24	14672	10000.0	0	0.00826799963
25	7215	10000.0	0	0.00902500004
25	7217	10000.0	0	0.0223650001
25	7475	10000.0	0	0.00666699978
26	9115	10000.0	0	0.0172990002
26	9116	10000.0	0	0.0185630005
26	13897	10000.0	0	0.00715300022
27	7229	10000.0	0	0.00948200002
27	7231	10000.0	0	0.00557299983
27	9112	10000.0	0	0.0172150005
28	7239	10000.0	0	0.00757500017
28	7252	10000.0	0	0.0108000003
28	13888	10000.0	0	0.0226169992
29	7144	10000.0	0	0.0172990002
29	7454	10000.0	0	0.0113190003
29	7665	10000.0	0	0.00670700008
29	13911	10000.0	0	0.0332899988
29	13912	10000.0	0	0.0173400007
30	7144	10000.0	0	0.00615700008
30	7430	10000.0	0	0.00564099988
31	7271	10000.0	0	0.0304879993
31	8878	10000.0	0	0.0493239984
31	9515	10000.0	0	0.033326
32	8878	10000.0	0	0.0424010009
32	14464	10000.0	0	0.00508099981
33	7141	10000.0	0	0.0310200006
33	9139	10000.0	0	0.0351999998
33	14420	10000.0	0	0.0411139987
34	11900	10000.0	0	0.0215789992
34	11901	10000.0	0	0.0285400003
35	7141	10000.0	0	0.0206119996
35	9119	10000.0	0	0.0315289982
35	11899	10000.0	0	0.0410810001
35	11901	10000.0	0	0.0241209995
36	7277	10000.0	0	0.0139760002
36	7278	10000.0	0	0.0205979999
36	8878	10000.0	0	0.036584001
37	13653	10000.0	0	0.0112509998
38	9139	10000.0	0	0.0321820006
38	9149	10000.0	0	0.0308710001
39	7343	10000.0	0	0.0182520002
40	9514	10000.0	0	0.0369950011
41	3420	10000.0	0	0.0112760002
41	3436	10000.0	0	0.00487199984
41	7381	10000.0	0	0.00577699998
41	15165	10000.0	0	0.0103989998
42	9513	10000.0	0	0.00483899983
42	13907	10000.0	0	0.0122079998
43	7347	10000.0	0	0.00513199996
43	9155	10000.0	0	0.00391699979
43	10603	10000.0	0	0.0138450004
44	7673	10000.0	0	0.00592199992
44	9156	10000.0	0	0.0240749996
44	14288	10000.0	0	0.006941
45	7477	10000.0	0	0.0110680005
45	7547	10000.0	0	0.0282550007
45	10564	10000.0	0	0.0455869995
45	10578	10000.0	0	0.0314130001
45	14447	10000.0	0	0.0127109997
46	7351	10000.0	0	0.0368230008
46	8204	10000.0	0	0.0142390002
46	9147	10000.0	0	0.0382689983
46	13313	10000.0	0	0.0221720003
46	14853	10000.0	0	0.0326200016
47	7395	10000.0	0	0.0284299999
47	7408	10000.0	0	0.020707
47	10564	10000.0	0	0.0157060008
47	13319	10000.0	0	0.0173499994
47	13324	10000.0	0	0.0227199998
47	14447	10000.0	0	0.0343319997
48	7522	10000.0	0	0.0265989993
48	7561	10000.0	0	0.0227039997
48	8886	10000.0	0	0.0214690007
48	9146	10000.0	0	0.0202179998
48	13313	10000.0	0	0.0303109996
48	14317	10000.0	0	0.0174180008
49	7451	10000.0	0	0.014591
49	8886	10000.0	0	0.0122100003
50	7272	10000.0	0	0.00894699991
50	13659	10000.0	0	0.0240640007
51	7276	10000.0	0	0.0218490008
51	7316	10000.0	0	0.0206519999
51	9160	10000.0	0	0.009265
52	7316	10000.0	0	0.016446
52	7750	10000.0	0	0.00586900022
53	7317	10000.0	0	0.00620400021
53	7750	10000.0	0	0.0278740004
53	13931	10000.0	0	0.00831099972
54	9516	10000.0	0	0.0147940004
55	10605	10000.0	0	0.0144250002
55	11236	10000.0	0	0.00890399981
55	13337	10000.0	0	0.0190619994
56	7556	10000.0	0	0.0126339998
56	7573	10000.0	0	0.0145690003
56	7575	10000.0	0	0.0171719994
56	7600	10000.0	0	0.0147519996
56	10578	10000.0	0	0.0199650005
57	7646	10000.0	0	0.0104430001
57	7655	10000.0	0	0.00405000011
57	8923	10000.0	0	0.0114390003
57	13310	10000.0	0	0.0148820002
57	13311	10000.0	0	0.0142689999
58	9138	10000.0	0	0.0120219998
58	13289	10000.0	0	0.0445809998
58	14062	10000.0	0	0.0209190007
59	8228	10000.0	0	0.0190639999
59	13312	10000.0	0	0.0126369996
59	14317	10000.0	0	0.0190290008
60	7619	10000.0	0	0.0208039992
60	7621	10000.0	0	0.0188069995
60	7649	10000.0	0	0.025781
60	13333	10000.0	0	0.0339750014
61	7669	10000.0	0	0.00971799996
61	10669	10000.0	0	0.00700900005
62	9154	10000.0	0	0.0157810003
62	14169	10000.0	0	0.0133999996
63	10947	10000.0	0	0.024247
63	10949	10000.0	0	0.0192230009
63	13309	10000.0	0	0.0137280002
64	9141	10000.0	0	0.00776199996
64	14007	10000.0	0	0.0219359994
64	14049	10000.0	0	0.0227899998
65	7537	10000.0	0	0.00860700011
65	7555	10000.0	0	0.00839299988
65	13916	10000.0	0	0.0106260004
66	7569	10000.0	0	0.0106119998
66	7596	10000.0	0	0.0206979997
67	7574	10000.0	0	0.0156619996
67	7579	10000.0	0	0.0164550003
67	7596	10000.0	0	0.0166640002
67	7666	10000.0	0	0.0289520007
67	13715	10000.0	0	0.00625400012
68	7217	10000.0	0	0.0258300006
68	7493	10000.0	0	0.0193169992
68	8895	10000.0	0	0.0234999992
68	13920	10000.0	0	0.0187950004
69	7555	10000.0	0	0.00930500031
69	7569	10000.0	0	0.00608599978
69	13916	10000.0	0	0.0110309999
70	7652	10000.0	0	0.0185790006
70	9126	10000.0	0	0.00830200035
70	9131	10000.0	0	0.0161400009
71	7754	10000.0	0	0.0243859999
71	9121	10000.0	0	0.0150469998
71	9507	10000.0	0	0.0037
72	7724	10000.0	0	0.00970499963
72	9550	10000.0	0	0.0216610003
73	7591	10000.0	0	0.0175390001
73	9630	10000.0	0	0.0195439998
73	13927	10000.0	0	0.0220229998
74	13914	10000.0	0	0.0283569992
75	7933	10000.0	0	0.0261860006
75	7938	10000.0	0	0.0273180008
75	9631	10000.0	0	0.0275970008
76	9525	10000.0	0	0.0183450002
77	7975	10000.0	0	0.0173659995
77	7993	10000.0	0	0.0216249991
77	9106	10000.0	0	0.0160140004
77	9107	10000.0	0	0.0195419993
78	10738	10000.0	0	0.00544100022
79	8008	10000.0	0	0.00479400018
79	8023	10000.0	0	0.010032
80	9531	10000.0	0	0.00591399986
80	9532	10000.0	0	0.00682399981
81	8023	10000.0	0	0.0207599998
81	9047	10000.0	0	0.0298459996
81	10757	10000.0	0	0.0201130006
82	9531	10000.0	0	0.0247569997
82	9578	10000.0	0	0.0145450002
82	13391	10000.0	0	0.0166909993
83	10758	10000.0	0	0.0231860001
83	13388	10000.0	0	0.0168869998
84	7989	10000.0	0	0.0447859988
84	9969	10000.0	0	0.0267740004
84	9970	10000.0	0	0.0358130001
84	9973	10000.0	0	0.0893220007
85	7938	10000.0	0	0.0443510003
85	9975	10000.0	0	0.0342990011
85	10790	10000.0	0	0.0222440008
86	7811	10000.0	0	0.0213740002
86	9524	10000.0	0	0.0174749997
86	14595	10000.0	0	0.0302649997
87	7811	10000.0	0	0.0159610007
87	7878	10000.0	0	0.0253730007
87	7907	10000.0	0	0.0498169996
87	7913	10000.0	0	0.0503350012
87	14595	10000.0	0	0.0223399997
88	9135	10000.0	0	0.029205
88	9136	10000.0	0	0.0234389994
88	10967	10000.0	0	0.0290070008
89	7822	10000.0	0	0.0321869999
89	7907	10000.0	0	0.0109869996
89	9133	10000.0	0	0.0184289999
89	9134	10000.0	0	0.0271899998
90	9630	10000.0	0	0.006391
90	14470	10000.0	0	0.00814399961
91	7765	10000.0	0	0.0200440008
91	10965	10000.0	0	0.0128499996
91	10967	10000.0	0	0.0195589997
91	10977	10000.0	0	0.0100090001
91	10978	10000.0	0	0.0100830002
92	9009	10000.0	0	0.0244280007
92	9170	10000.0	0	0.00669400021
93	9103	10000.0	0	0.00480999984
94	10181	10000.0	0	0.0068049999
94	13686	10000.0	0	0.0128309997
94	14679	10000.0	0	0.0218260009
95	8834	10000.0	0	0.00740600005
95	9632	10000.0	0	0.00721300021
95	14685	10000.0	0	0.0151869999
95	14686	10000.0	0	0.0157750007
96	7893	10000.0	0	0.0309219994
96	7973	10000.0	0	0.0228460003
96	7993	10000.0	0	0.0319080018
96	7996	10000.0	0	0.0306480005
96	9168	10000.0	0	0.0228560008
96	13392	10000.0	0	0.0109799998
97	9101	10000.0	0	0.0418159999
97	14495	10000.0	0	0.0254759993
97	14684	10000.0	0	0.0162150003
98	8075	10000.0	0	0.0164320003
98	8085	10000.0	0	0.0175500009
98	8092	10000.0	0	0.00871600024
99	8075	10000.0	0	0.0283460002
99	9097	10000.0	0	0.00983900018
99	9177	10000.0	0	0.0271819998
100	7236	10000.0	0	0.0119420001
101	7216	10000.0	0	0.0170610007
101	7249	10000.0	0	0.0384379998
101	7671	10000.0	0	0.0138590001
102	9157	10000.0	0	0.00623899978
103	7249	10000.0	0	0.0164199993
103	14221	10000.0	0	0.0158479996
104	7133	10000.0	0	0.0176309999
104	7163	10000.0	0	0.0240570009
104	10791	10000.0	0	0.0123159997
104	10797	10000.0	0	0.0198209994
105	10833	10000.0	0	0.00822899956
105	14170	10000.0	0	0.0149140004
106	7668	10000.0	0	0.00634700013
106	9511	10000.0	0	0.00700300001
107	7112	10000.0	0	0.0136590004
107	7133	10000.0	0	0.0217979997
107	9066	10000.0	0	0.0403910019
107	10797	10000.0	0	0.0139210001
107	10935	10000.0	0	0.0288910009
108	13674	10000.0	0	0.0133349998
109	7127	10000.0	0	0.018956
109	9108	10000.0	0	0.0318600014
109	14492	10000.0	0	0.00858000014
110	7247	10000.0	0	0.00618400006
111	14494	10000.0	0	0.00435699988
112	9172	10000.0	0	0.00737599982
113	10798	10000.0	0	0.00804900005
113	14881	10000.0	0	0.0336669981
114	6956	10000.0	0	0.0186909996
114	6958	10000.0	0	0.0126
114	13562	10000.0	0	0.048179999
114	14881	10000.0	0	0.0481389984
115	6847	10000.0	0	0.0441810004
115	6864	10000.0	0	0.0235890001
115	6879	10000.0	0	0.00964399986
115	6896	10000.0	0	0.0255050007
115	13902	10000.0	0	0.0273020007
116	10847	10000.0	0	0.0137700001
116	10922	10000.0	0	0.0205620006
117	7082	10000.0	0	0.022721
117	7092	10000.0	0	0.00858199969
117	9511	10000.0	0	0.0176270008
118	7161	10000.0	0	0.00872800034
118	9172	10000.0	0	0.0120160002
118	13889	10000.0	0	0.0122809997
119	7383	10000.0	0	0.0158670004
119	9109	10000.0	0	0.00735499989
119	13666	10000.0	0	0.0231480002
120	7134	10000.0	0	0.0180760007
120	10882	10000.0	0	0.00806500018
120	10940	10000.0	0	0.0190420002
121	7127	10000.0	0	0.0261119995
121	14493	10000.0	0	0.0114719998
122	8945	10000.0	0	0.0250460003
122	10890	10000.0	0	0.0517220013
122	10941	10000.0	0	0.0149480002
122	10942	10000.0	0	0.0159309991
123	8946	10000.0	0	0.0191690009
123	10882	10000.0	0	0.0286330003
124	14468	10000.0	0	0.00903899968
125	7067	10000.0	0	0.0141089996
126	10922	10000.0	0	0.00585900014
127	11167	10000.0	0	0.0577359982
127	12435	10000.0	0	0.0630889982
128	6706	10000.0	0	0.0152009996
128	6717	10000.0	0	0.0216329992
128	10290	10000.0	0	0.0280220006
129	10943	10000.0	0	0.0175880007
129	13746	10000.0	0	0.023945
130	6658	10000.0	0	0.0216099992
130	6667	10000.0	0	0.00502899988
131	14450	10000.0	0	0.00892999955
131	14452	10000.0	0	0.0235680006
132	14038	10000.0	0	0.0105170002
133	7132	10000.0	0	0.0286669992
134	13279	10000.0	0	0.0275279991
135	10958	10000.0	0	0.0235339999
135	13826	10000.0	0	0.020699
136	10960	10000.0	0	0.0292659998
137	6840	10000.0	0	0.0126339998
137	13929	10000.0	0	0.0450639986
138	8942	10000.0	0	0.0510159992
138	13928	10000.0	0	0.0575979985
139	6986	10000.0	0	0.014006
140	6904	10000.0	0	0.0489559993
141	14544	10000.0	0	0.0489719994
141	14545	10000.0	0	0.0679590032
142	10192	10000.0	0	0.0625969991
142	14542	10000.0	0	0.0358740017
143	14555	10000.0	0	0.0440789983
144	6807	10000.0	0	0.101705
145	6933	10000.0	0	0.0998819992
146	6842	10000.0	0	0.0249450002
147	6724	10000.0	0	0.058642
148	6664	10000.0	0	0.0402610004
149	6618	10000.0	0	0.0689219981
150	6665	10000.0	0	0.0561310016
151	9714	10000.0	0	0.109025002
152	6510	10000.0	0	0.0699589998
153	9712	10000.0	0	0.177176997
153	12406	10000.0	0	0.0586589985
154	12407	10000.0	0	0.102776997
155	10983	10000.0	0	0.0647220016
156	6503	10000.0	0	0.0218219999
157	6453	10000.0	0	0.101130001
158	11007	10000.0	0	0.0157089997
159	14552	10000.0	0	0.0355120003
160	13553	10000.0	0	0.0165739991
161	8962	10000.0	0	0.0416640006
162	8941	10000.0	0	0.0693399981
163	6274	10000.0	0	0.0255929995
164	6280	10000.0	0	0.0276629999
165	11008	10000.0	0	0.0401769988
166	8991	10000.0	0	0.0911569968
167	11009	10000.0	0	0.0843190029
168	6348	10000.0	0	0.0271039996
169	9662	10000.0	0	0.038488999
170	9657	10000.0	0	0.0655670017
171	6357	10000.0	0	0.033050999
172	9656	10000.0	0	0.0287139993
173	11023	10000.0	0	0.0491879992
174	7286	10000.0	0	0.0297890007
175	6707	10000.0	0	0.00734600006
175	12435	10000.0	0	0.0124850003
175	13555	10000.0	0	0.0122689996
176	6689	10000.0	0	0.0244919993
176	6693	10000.0	0	0.0283920001
176	8951	10000.0	0	0.0530520007
176	11030	10000.0	0	0.0146930004
177	10290	10000.0	0	0.0229909997
177	11039	10000.0	0	0.00882500038
178	11043	10000.0	0	0.0122729996
179	6669	10000.0	0	0.00953400042
179	14866	10000.0	0	0.0330559984
180	6679	10000.0	0	0.00380799989
180	14866	10000.0	0	0.0151000004
181	6693	10000.0	0	0.0165309999
182	10283	10000.0	0	0.0256869998
182	14172	10000.0	0	0.0368830003
183	6644	10000.0	0	0.00841999985
183	10283	10000.0	0	0.0393689983
184	6634	10000.0	0	0.00566999987
184	14171	10000.0	0	0.0322570018
185	6670	10000.0	0	0.0240790006
185	10349	10000.0	0	0.0370000005
186	6714	10000.0	0	0.0615999997
186	11087	10000.0	0	0.0103879999
187	10299	10000.0	0	0.0207390003
187	11094	10000.0	0	0.01547
187	14094	10000.0	0	0.0241459999
188	6714	10000.0	0	0.0188650005
188	6744	10000.0	0	0.0358389989
188	11094	10000.0	0	0.0675129965
189	6670	10000.0	0	0.0140530001
189	6674	10000.0	0	0.00763199991
190	6760	10000.0	0	0.0105370004
190	10291	10000.0	0	0.0152749997
191	10292	10000.0	0	0.0201619994
192	10284	10000.0	0	0.00823500007
193	8950	10000.0	0	0.0172470007
194	9509	10000.0	0	0.0401620008
195	11116	10000.0	0	0.0433490016
196	11138	10000.0	0	0.0164749995
197	7026	10000.0	0	0.00930299982
197	13881	10000.0	0	0.0213200003
197	14444	10000.0	0	0.0130420001
198	9049	10000.0	0	0.014006
199	7046	10000.0	0	0.0140220001
199	7059	10000.0	0	0.0117549999
200	9036	10000.0	0	0.0151300002
200	10931	10000.0	0	0.0174620003
200	12449	10000.0	0	0.0215380006
201	9035	10000.0	0	0.0323470011
201	11141	10000.0	0	0.0102049997
202	7068	10000.0	0	0.00934199989
202	9041	10000.0	0	0.0136259999
203	12448	10000.0	0	0.008134
203	13881	10000.0	0	0.0297749992
203	14380	10000.0	0	0.0220340006
204	6951	10000.0	0	0.00759299984
204	9048	10000.0	0	0.0326719992
205	14838	10000.0	0	0.0136399996
205	14844	10000.0	0	0.0124399997
206	10901	10000.0	0	0.0278169997
206	14838	10000.0	0	0.0203750003
207	10923	10000.0	0	0.0280380007
207	14837	10000.0	0	0.00928100012
208	9033	10000.0	0	0.00946800038
208	11159	10000.0	0	0.00968199968
209	6848	10000.0	0	0.0246239994
209	6882	10000.0	0	0.0113289999
209	14039	10000.0	0	0.0148790004
210	9042	10000.0	0	0.0114559997
211	14598	10000.0	0	0.0364510007
211	14846	10000.0	0	0.0120489998
211	14847	10000.0	0	0.0105010001
212	11162	10000.0	0	0.0122100003
212	14813	10000.0	0	0.005901
213	6862	10000.0	0	0.0117549999
213	10925	10000.0	0	0.0394539982
214	6927	10000.0	0	0.0321509987
214	9544	10000.0	0	0.00431900006
215	9034	10000.0	0	0.0110470001
216	6927	10000.0	0	0.0231599994
216	9035	10000.0	0	0.00649000006
217	11165	10000.0	0	0.0152799999
218	11906	10000.0	0	0.0494300015
219	11173	10000.0	0	0.0233309995
220	7122	10000.0	0	0.0150269996
220	7146	10000.0	0	0.022628
220	10598	10000.0	0	0.0232970007
221	7326	10000.0	0	0.012379
221	13340	10000.0	0	0.00864099991
222	7341	10000.0	0	0.0159869995
222	7348	10000.0	0	0.0271809995
222	9072	10000.0	0	0.0177049991
223	10912	10000.0	0	0.0364799984
223	13339	10000.0	0	0.0175110009
223	13340	10000.0	0	0.0239359997
224	8925	10000.0	0	0.0307890009
224	9071	10000.0	0	0.00456199981
225	8925	10000.0	0	0.00891000032
225	9072	10000.0	0	0.03204
225	9074	10000.0	0	0.0329199992
226	7237	10000.0	0	0.0220940001
226	9073	10000.0	0	0.0200689994
227	7341	10000.0	0	0.0561139993
227	7449	10000.0	0	0.037912
228	7146	10000.0	0	0.0289769992
228	9059	10000.0	0	0.0198049992
229	9068	10000.0	0	0.015075
229	11177	10000.0	0	0.0209340006
229	11777	10000.0	0	0.0328769982
230	7206	10000.0	0	0.0109569998
230	10917	10000.0	0	0.0171349999
231	7173	10000.0	0	0.0188159999
232	9545	10000.0	0	0.0183479991
232	10920	10000.0	0	0.0410309993
232	14732	10000.0	0	0.0486299992
233	7115	10000.0	0	0.0191830005
233	7121	10000.0	0	0.0123530002
233	11179	10000.0	0	0.0403620005
233	13352	10000.0	0	0.0639349967
234	11188	10000.0	0	0.0251320004
234	11192	10000.0	0	0.0114519997
235	7237	10000.0	0	0.0249480009
235	9598	10000.0	0	0.0264260005
235	10915	10000.0	0	0.0235990006
236	11219	10000.0	0	0.00995699968
236	13347	10000.0	0	0.01963
237	7275	10000.0	0	0.00633199979
237	10916	10000.0	0	0.0142959999
237	14727	10000.0	0	0.0155830001
238	9599	10000.0	0	0.0330599993
238	14485	10000.0	0	0.0170109998
239	7333	10000.0	0	0.0115870005
239	14727	10000.0	0	0.0179009996
240	9599	10000.0	0	0.0408810005
241	9372	10000.0	0	0.00941099972
242	7611	10000.0	0	0.00945600029
242	9083	10000.0	0	0.00529100001
242	14278	10000.0	0	0.0124559999
243	7584	10000.0	0	0.0222750008
243	8861	10000.0	0	0.0196790006
243	14720	10000.0	0	0.0187940001
244	7685	10000.0	0	0.0173729993
244	7698	10000.0	0	0.0250020009
244	9083	10000.0	0	0.029623
245	7732	10000.0	0	0.0252979994
245	11773	10000.0	0	0.0218160003
246	8956	10000.0	0	0.0138539998
246	9082	10000.0	0	0.0258879997
247	7488	10000.0	0	0.0109219998
247	9081	10000.0	0	0.0464919992
248	12848	10000.0	0	0.00638299994
249	8846	10000.0	0	0.0104240002
249	11225	10000.0	0	0.0101979999
250	7755	10000.0	0	0.00774100004
250	8845	10000.0	0	0.0136529999
251	14713	10000.0	0	0.00949100032
251	14715	10000.0	0	0.0164909996
252	7876	10000.0	0	0.0112460004
252	14712	10000.0	0	0.0189219993
253	8857	10000.0	0	0.0273550004
253	11770	10000.0	0	0.0269370005
253	15170	10000.0	0	0.0213929992
253	15171	10000.0	0	0.0240219999
254	7618	10000.0	0	0.0203510001
254	8859	10000.0	0	0.0179869998
254	8860	10000.0	0	0.035769999
254	13365	10000.0	0	0.0441830009
254	14718	10000.0	0	0.00466200011
255	13366	10000.0	0	0.0729999989
256	8846	10000.0	0	0.0148080001
256	8849	10000.0	0	0.0160659999
256	8850	10000.0	0	0.0104689999
257	3437	10000.0	0	0.0235670004
257	10954	10000.0	0	0.0160649996
257	13334	10000.0	0	0.010369
257	13723	10000.0	0	0.0104879998
258	3437	10000.0	0	0.026842
258	11229	10000.0	0	0.0101110004
258	15151	10000.0	0	0.0157639999
259	10954	10000.0	0	0.0188280009
259	11227	10000.0	0	0.0166669991
259	13724	10000.0	0	0.0136360005
260	9152	10000.0	0	0.00719199982
260	10946	10000.0	0	0.0315250009
260	14447	10000.0	0	0.0209229998
261	7779	10000.0	0	0.00842200033
261	7884	10000.0	0	0.00712700002
261	7896	10000.0	0	0.0165500008
261	9156	10000.0	0	0.034111999
262	11230	10000.0	0	0.00985999964
262	14287	10000.0	0	0.0150539996
262	15151	10000.0	0	0.0339680016
263	7565	10000.0	0	0.0071109999
263	13661	10000.0	0	0.0227600001
264	7488	10000.0	0	0.0388129987
264	13578	10000.0	0	0.0145589998
265	7603	10000.0	0	0.015253
265	9082	10000.0	0	0.0130740004
265	11232	10000.0	0	0.0102770003
266	7679	10000.0	0	0.00939700007
266	8844	10000.0	0	0.0114559997
266	13359	10000.0	0	0.00463900017
267	7743	10000.0	0	0.0166650005
267	8235	10000.0	0	0.0296529997
267	11698	10000.0	0	0.0276519991
267	11772	10000.0	0	0.027578
268	10913	10000.0	0	0.017027
268	13667	10000.0	0	0.00867999997
268	14490	10000.0	0	0.00998600014
269	7367	10000.0	0	0.0154720005
269	7372	10000.0	0	0.0138440002
270	10914	10000.0	0	0.0311389994
270	14488	10000.0	0	0.0122720003
271	7450	10000.0	0	0.0231260005
271	7459	10000.0	0	0.0246210005
271	8919	10000.0	0	0.0166549999
271	11234	10000.0	0	0.0177420005
272	7349	10000.0	0	0.0211100001
272	8922	10000.0	0	0.0151530001
272	11234	10000.0	0	0.0281649996
273	7726	10000.0	0	0.00553200021
273	10955	10000.0	0	0.0136500001
273	11702	10000.0	0	0.0255629998
274	9085	10000.0	0	0.0106619997
275	7819	10000.0	0	0.00982199982
275	7846	10000.0	0	0.00977300014
276	7802	10000.0	0	0.0282690004
276	7852	10000.0	0	0.0183269996
276	8943	10000.0	0	0.019994
276	13327	10000.0	0	0.00762300007
277	7783	10000.0	0	0.0144769996
277	7816	10000.0	0	0.00949500035
277	7818	10000.0	0	0.0290699992
278	7880	10000.0	0	0.0114059998
278	9142	10000.0	0	0.00428400002
279	7915	10000.0	0	0.00605100021
279	10030	10000.0	0	0.0282039996
279	10033	10000.0	0	0.0211079996
280	7854	10000.0	0	0.0155170001
280	9137	10000.0	0	0.0207509995
280	9512	10000.0	0	0.0237109996
280	10030	10000.0	0	0.0259109996
280	10033	10000.0	0	0.0243490003
280	10978	10000.0	0	0.0177880004
281	7802	10000.0	0	0.0251860004
281	8943	10000.0	0	0.0125249997
281	10980	10000.0	0	0.0116060004
281	10981	10000.0	0	0.0118460003
282	7818	10000.0	0	0.0407529995
282	9623	10000.0	0	0.0193329994
283	4742	10000.0	0	0.0088109998
283	4866	10000.0	0	0.0222430006
284	4871	10000.0	0	0.0268029999
284	8062	10000.0	0	0.0140610002
285	8523	10000.0	0	0.00799200032
285	14445	10000.0	0	0.012596
286	9177	10000.0	0	0.0133659998
287	4866	10000.0	0	0.0302840006
287	7990	10000.0	0	0.0178200006
288	8058	10000.0	0	0.0500739999
288	8842	10000.0	0	0.0119249998
288	9541	10000.0	0	0.0292949993
289	11237	10000.0	0	0.0095920004
289	14279	10000.0	0	0.0137569997
289	14281	10000.0	0	0.0117560001
290	4633	10000.0	0	0.010791
290	9086	10000.0	0	0.0157019999
290	14709	10000.0	0	0.0280440003
291	4633	10000.0	0	0.0167599991
291	7908	10000.0	0	0.0148670003
291	9086	10000.0	0	0.0254200008
291	11268	10000.0	0	0.0133480001
292	9086	10000.0	0	0.0190409999
292	14706	10000.0	0	0.0163470004
293	7908	10000.0	0	0.034841001
293	11289	10000.0	0	0.0160889998
294	11282	10000.0	0	0.0138170002
294	11289	10000.0	0	0.0187449995
295	7713	10000.0	0	0.00866699964
295	7718	10000.0	0	0.0119209997
296	8916	10000.0	0	0.0139260003
297	8058	10000.0	0	0.0111779999
297	14700	10000.0	0	0.0242839996
298	8841	10000.0	0	0.0115440004
298	15172	10000.0	0	0.0116699999
298	15173	10000.0	0	0.00934899971
298	15174	10000.0	0	0.00821200013
299	8270	10000.0	0	0.0124620004
299	12779	10000.0	0	0.0140869999
299	13589	10000.0	0	0.0104329996
300	14253	10000.0	0	0.00581800006
301	8332	10000.0	0	0.0137970001
301	9536	10000.0	0	0.0267949998
301	10168	10000.0	0	0.0251439996
302	9534	10000.0	0	0.0269530006
302	9959	10000.0	0	0.0236060005
303	8917	10000.0	0	0.0131050004
304	8172	10000.0	0	0.0171249993
304	8836	10000.0	0	0.0122419996
305	8836	10000.0	0	0.0311719999
305	10182	10000.0	0	0.0200660005
306	8979	10000.0	0	0.0440570004
306	13387	10000.0	0	0.0180760007
307	8073	10000.0	0	0.0320530012
307	8111	10000.0	0	0.00892399997
307	9533	10000.0	0	0.0347030014
307	9962	10000.0	0	0.0240199994
308	8073	10000.0	0	0.0135519998
308	9030	10000.0	0	0.0102239996
308	9031	10000.0	0	0.0247050002
308	10757	10000.0	0	0.0125460001
309	14688	10000.0	0	0.0105490005
309	14689	10000.0	0	0.013638
310	12011	10000.0	0	0.0134359999
311	8910	10000.0	0	0.0453080013
311	15175	10000.0	0	0.0244459994
312	8139	10000.0	0	0.0135559998
312	14685	10000.0	0	0.0113580003
313	8416	10000.0	0	0.0122950003
313	8424	10000.0	0	0.014304
314	8350	10000.0	0	0.0194259994
314	10171	10000.0	0	0.0250320006
315	9029	10000.0	0	0.0531789996
315	9166	10000.0	0	0.0401189998
315	10166	10000.0	0	0.0295620002
315	10167	10000.0	0	0.0460369997
315	10168	10000.0	0	0.0538549982
315	11296	10000.0	0	0.0284710005
316	8416	10000.0	0	0.0143539999
316	9165	10000.0	0	0.0245520007
317	8358	10000.0	0	0.0467649996
317	8393	10000.0	0	0.0229209997
317	9972	10000.0	0	0.0311650001
318	8395	10000.0	0	0.0704779997
318	9971	10000.0	0	0.040107999
319	8367	10000.0	0	0.00619800016
319	11301	10000.0	0	0.0498819984
320	8358	10000.0	0	0.039303001
320	9959	10000.0	0	0.0513160005
321	11301	10000.0	0	0.0461779982
321	11320	10000.0	0	0.054366
322	8194	10000.0	0	0.00993300043
322	8981	10000.0	0	0.0113289999
322	13819	10000.0	0	0.0317620002
323	8130	10000.0	0	0.0358030014
323	8156	10000.0	0	0.0250109993
323	8196	10000.0	0	0.0253509991
323	9965	10000.0	0	0.031134
324	8208	10000.0	0	0.0275069997
324	8214	10000.0	0	0.0207119994
324	8272	10000.0	0	0.0231880005
324	8295	10000.0	0	0.0536920018
325	8178	10000.0	0	0.01504
325	13959	10000.0	0	0.00457700016
326	9528	10000.0	0	0.0243999995
326	13819	10000.0	0	0.0237429999
327	9527	10000.0	0	0.0101340003
327	9567	10000.0	0	0.0258070007
328	8340	10000.0	0	0.0438180007
328	8975	10000.0	0	0.0321939997
329	8295	10000.0	0	0.0203210004
329	8335	10000.0	0	0.0332829989
329	8967	10000.0	0	0.0186129995
330	8093	10000.0	0	0.0317620002
330	8983	10000.0	0	0.0249799993
330	8984	10000.0	0	0.0161140002
331	8985	10000.0	0	0.0164730009
331	8986	10000.0	0	0.0218969993
332	9031	10000.0	0	0.00967300031
332	11387	10000.0	0	0.0362240002
333	8130	10000.0	0	0.0194039997
333	8192	10000.0	0	0.0349970013
333	8983	10000.0	0	0.0445530005
334	8986	10000.0	0	0.0493649989
334	9529	10000.0	0	0.0160750002
335	8153	10000.0	0	0.0472019985
335	8161	10000.0	0	0.0278539993
335	11421	10000.0	0	0.0137989996
336	8240	10000.0	0	0.0326349996
336	8980	10000.0	0	0.0175480004
337	8269	10000.0	0	0.0172910001
337	11396	10000.0	0	0.0183799993
338	8335	10000.0	0	0.0165589992
338	9967	10000.0	0	0.00749300001
338	13379	10000.0	0	0.0212469995
339	8335	10000.0	0	0.055670999
339	8378	10000.0	0	0.0172460005
340	8278	10000.0	0	0.0208390001
340	9966	10000.0	0	0.0654269978
341	13956	10000.0	0	0.0103759998
341	13957	10000.0	0	0.0289580002
342	8976	10000.0	0	0.0181120001
342	13958	10000.0	0	0.0191719998
343	9567	10000.0	0	0.0418890007
343	11422	10000.0	0	0.016299
344	8140	10000.0	0	0.0219960008
344	8976	10000.0	0	0.0234789997
345	7929	10000.0	0	0.0299820006
345	7989	10000.0	0	0.0297500007
346	11428	10000.0	0	0.0151079996
347	8357	10000.0	0	0.00868100021
347	8366	10000.0	0	0.0189510006
347	8384	10000.0	0	0.0256430004
348	8397	10000.0	0	0.0148250004
348	14758	10000.0	0	0.0323209986
349	14247	10000.0	0	0.0332529992
349	14761	10000.0	0	0.0117920004
350	8294	10000.0	0	0.016477
350	11684	10000.0	0	0.0186100006
351	11434	10000.0	0	0.0349289998
351	11535	10000.0	0	0.0499899983
351	14752	10000.0	0	0.0512080006
352	8390	10000.0	0	0.039735999
352	11538	10000.0	0	0.0211660005
353	8377	10000.0	0	0.0192000009
354	11763	10000.0	0	0.0395389982
355	11769	10000.0	0	0.0283599999
356	8305	10000.0	0	0.0163659994
356	8812	10000.0	0	0.012561
356	9399	10000.0	0	0.0119439997
357	14754	10000.0	0	0.0100349998
358	9403	10000.0	0	0.0230119992
359	8290	10000.0	0	0.0224259999
359	11766	10000.0	0	0.0321180001
359	14752	10000.0	0	0.0374459997
360	11537	10000.0	0	0.0171290003
361	8168	10000.0	0	0.0226629991
361	11747	10000.0	0	0.0178909991
362	13610	10000.0	0	0.0560249984
363	9191	10000.0	0	0.0344320014
363	14248	10000.0	0	0.00907600019
364	9191	10000.0	0	0.0251889993
364	14248	10000.0	0	0.0254110005
365	8236	10000.0	0	0.0251749996
365	11731	10000.0	0	0.0479179993
366	8155	10000.0	0	0.0317000002
366	13695	10000.0	0	0.0391280018
367	9500	10000.0	0	0.0111750001
367	10109	10000.0	0	0.0166570004
367	13417	10000.0	0	0.013878
367	13418	10000.0	0	0.0102399997
368	9501	10000.0	0	0.0227739997
368	10109	10000.0	0	0.0268469993
368	13415	10000.0	0	0.0171300005
369	8721	10000.0	0	0.0190219991
369	10108	10000.0	0	0.0323290005
370	8702	10000.0	0	0.0186149999
370	8705	10000.0	0	0.0170300007
371	9930	10000.0	0	0.0246980004
372	9501	10000.0	0	0.0217460003
372	10108	10000.0	0	0.0378980003
372	13416	10000.0	0	0.0229850002
373	3302	10000.0	0	0.0414750017
373	3304	10000.0	0	0.0239489991
374	8673	10000.0	0	0.019723
374	13415	10000.0	0	0.0296219997
375	9495	10000.0	0	0.0137259997
375	10128	10000.0	0	0.0171019994
376	9499	10000.0	0	0.0408309996
376	10105	10000.0	0	0.0412559994
377	8680	10000.0	0	0.0462770015
377	10111	10000.0	0	0.0261090007
378	8667	10000.0	0	0.0111159999
378	8669	10000.0	0	0.00518599991
379	8672	10000.0	0	0.025905
379	14047	10000.0	0	0.0204799995
380	13255	10000.0	0	0.0148740001
381	9502	10000.0	0	0.00925699994
381	10110	10000.0	0	0.0135709997
382	8664	10000.0	0	0.0170850009
383	8672	10000.0	0	0.0201789998
383	9502	10000.0	0	0.019514
384	11541	10000.0	0	0.0156150004
384	14314	10000.0	0	0.0223929994
385	13413	10000.0	0	0.0263289995
385	13606	10000.0	0	0.0137440003
386	7912	10000.0	0	0.0149339996
387	7912	10000.0	0	0.0195569992
387	9019	10000.0	0	0.00881600007
388	9007	10000.0	0	0.0248809997
389	7875	10000.0	0	0.0139159998
389	8854	10000.0	0	0.0215039998
390	8856	10000.0	0	0.014796
391	9022	10000.0	0	0.0243999995
391	14749	10000.0	0	0.0326230004
391	14794	10000.0	0	0.0277159996
392	9024	10000.0	0	0.0398579985
392	11543	10000.0	0	0.0354049988
393	11544	10000.0	0	0.0262240004
394	4907	10000.0	0	0.0185589995
394	5196	10000.0	0	0.0190420002
394	9214	10000.0	0	0.0200929996
394	10354	10000.0	0	0.0239889994
395	6590	10000.0	0	0.0265660007
395	11545	10000.0	0	0.0418209992
395	11546	10000.0	0	0.0309490003
396	4907	10000.0	0	0.049970001
396	5081	10000.0	0	0.0239909999
396	6571	10000.0	0	0.0342550017
397	6562	10000.0	0	0.0202600006
398	6592	10000.0	0	0.0394020006
398	10279	10000.0	0	0.080215998
399	11551	10000.0	0	0.0234660003
400	5662	10000.0	0	0.0596340001
400	10279	10000.0	0	0.0407770015
401	6483	10000.0	0	0.0434800014
402	6517	10000.0	0	0.0186720006
402	6553	10000.0	0	0.0258300006
403	6490	10000.0	0	0.0136059998
403	6517	10000.0	0	0.0370920002
404	6449	10000.0	0	0.0679799989
405	6500	10000.0	0	0.0248240009
406	5887	10000.0	0	0.0467460006
407	11555	10000.0	0	0.0390259996
408	5822	10000.0	0	0.0115280002
409	11556	10000.0	0	0.0318869986
410	6408	10000.0	0	0.0189120006